24
 energy: -56.453392199648 gnorm: 0.000807430667 xtb: 6.6.1 (8d0f1dd)
O           -4.12068509589260        0.59503087560025       -0.41163529728783
C           -2.97263852401311        0.91252785814703       -0.30299115086978
O           -2.65530474910472        2.24233960444237       -0.28857662728550
C           -1.40550052773811        2.78464904522345       -0.17285201091173
O           -1.29170832159530        3.97526022858742       -0.17653221742867
C           -0.27529265350209        1.83992950883261       -0.05009045942701
C            1.02109681322628        2.30416404991722        0.07125515373397
C            2.08426601032910        1.40677805555419        0.18679223113687
C            1.85190856809201        0.04401888861467        0.18108254051126
C            0.53841811549662       -0.45456219182108        0.05850116081216
C            0.27527904812286       -1.83986095747212        0.05007215194055
C           -1.02111552570465       -2.30417668982967       -0.07123822927358
C           -2.08426490815615       -1.40668246799877       -0.18678643794692
C           -1.85195955841860       -0.04403324182924       -0.18110084186998
C           -0.53867253035881        0.45459951759632       -0.05854699186451
C            1.40549463808918       -2.78468768404025        0.17274040952233
O            1.29182055694925       -3.97530837164604        0.17662414533877
O            2.65532722956791       -2.24218746624078        0.28859208760070
C            2.97264459345286       -0.91248822030970        0.30297122558496
O            4.12063001046132       -0.59522146323268        0.41168952665177
H            1.19401546111242        3.36978164545038        0.07483773041028
H            3.09934475005236        1.76108600960645        0.28190449263542
H           -1.19378096648837       -3.36966043751768       -0.07480952561229
H           -3.09942243397966       -1.76119609563435       -0.28190306610124
