70
 energy: -104.194831813851 gnorm: 0.000171581008 xtb: 6.6.1 (8d0f1dd)
C            5.26507605433420        1.42399240086994        0.15614339459563
C            3.93095702471000        1.50734905655640       -0.19439970441222
C            2.95406264724510        0.92031964004386        0.60362397597352
C            1.51437467341366        1.05404346053517        0.29639970552114
C            0.71594940808652       -0.07181256859511       -0.01138293890944
C           -0.71841193874970        0.07121138949451        0.00520719567819
C           -1.27476241425873        1.37102185656689       -0.01482150436285
C           -2.70131942288137        1.59059660174488       -0.33320605876596
C           -3.58289281134417        2.15380049252336        0.58395639479013
C           -4.89475143071262        2.40625377496954        0.23018625379222
C           -5.33854261382243        2.11994021201029       -1.04971545878619
C           -4.46309384960137        1.57811981325419       -1.97478049568222
C           -3.15346112976540        1.31465660316649       -1.61966123040736
C           -0.46063189389128        2.49276625555696        0.15834473173154
C           -0.97785340485288        3.81790145357829        0.10850500931276
C           -0.19846719268610        4.89150962232365        0.40031839090932
C            1.15232021383278        4.71100744248499        0.76906160083426
C            1.70100056390270        3.46832525794720        0.77370327410308
C            0.93726990816721        2.32061364194463        0.41910794849122
C           -1.51965037305167       -1.09330576585831        0.04198110258423
C           -2.95303779396394       -1.02664659423686        0.39635951298405
C           -3.95226504964055       -1.40070981608324       -0.49639751953244
C           -5.27866346003641       -1.38688547847227       -0.10854443210599
C           -5.62357511888100       -1.02035242455159        1.18133927391003
C           -4.63427614417163       -0.66653582599361        2.08237938760601
C           -3.30797684513961       -0.66914624962910        1.69322358435791
C           -0.94714734566848       -2.35342881279066       -0.14597400954874
C            0.45097678384697       -2.46037705782405       -0.43864781661778
C            1.26930460500343       -1.33270815282241       -0.33359900966751
C            2.69999992328828       -1.48557340994342       -0.67232385091335
C            3.17977512441136       -0.92748595928546       -1.85269992208357
C            4.49430997036175       -1.11848399922870       -2.23536748342407
C            5.34665151354805       -1.86939511907005       -1.44455272291404
C            4.87501214206903       -2.43684947951109       -0.27293018476859
C            3.55854434442335       -2.25550143959580        0.10613616884588
C            0.96519147297346       -3.73631064556625       -0.80458738890181
C            0.18266701569855       -4.84646687218474       -0.78128185638308
C           -1.16869080486525       -4.75681634096105       -0.38252194774662
C           -1.71446282856381       -3.55039250890440       -0.07927023433014
C            3.33909766059924        0.27553994860356        1.77449940245378
C            4.67326053317491        0.20210678957492        2.12868751826181
C            5.64010994928440        0.77172094174971        1.31846020407572
H            6.01524165248878        1.87468566348710       -0.47729288062067
H            3.63765624747278        2.02074576492349       -1.09898943166830
H           -3.23576328088478        2.38095875330428        1.58184188851697
H           -5.57281150587775        2.83335484201121        0.95472085688717
H           -6.36285214831634        2.32234368569007       -1.32577985008694
H           -4.80170989959296        1.36117684649673       -2.97753919125939
H           -2.46727349071927        0.89424225931802       -2.34125721790838
H           -2.01343496949712        3.95854467546028       -0.16131859651201
H           -0.60787237854303        5.89040965631491        0.36317376759055
H            1.74711910166939        5.57191489856490        1.03706676029559
H            2.73728894677254        3.33604743099705        1.04497612446947
H           -3.68315272754180       -1.69019138364303       -1.50218966770115
H           -6.04666507707096       -1.66819433696849       -0.81435580538364
H           -6.66028140896819       -1.01467685375693        1.48390937364689
H           -4.89695794812431       -0.38909923286906        3.09286723098700
H           -2.53339183982637       -0.39596202834386        2.39581964743995
H            2.51149377595989       -0.34496325345829       -2.47097440227015
H            4.85468090262825       -0.68160857440908       -3.15534571585892
H            6.37457537345981       -2.01582477407572       -1.74175758184799
H            5.53474465246139       -3.02776199107135        0.34566225637324
H            3.18904579617233       -2.70224774113521        1.01815063387872
H            2.00079226162764       -3.81115361425497       -1.09940941358319
H            0.59008101165338       -5.80800380549098       -1.05745937726653
H           -1.76602380856127       -5.65536567800070       -0.33156552637175
H           -2.75131657504651       -3.48370749896272        0.21317461551998
H            2.58213682448710       -0.16499661199179        2.40786179122889
H            4.95969453398081       -0.29980051662283        3.04146577879687
H            6.68277831193478        0.71142128411989        1.59338567223217
